data_-153.580 
loop_
_symmetry_equiv_pos_site_id
_symmetry_equiv_pos_as_xyz
1 +x,+y,+z
_cell_length_a 6.2416
_cell_length_b 20.0396
_cell_length_c 9.9084
_cell_angle_alpha 108.3849
_cell_angle_beta 146.0538
_cell_angle_gamma 67.8999
loop_
_atom_site_label
_atom_site_type_symbol
_atom_site_fract_x
_atom_site_fract_y
_atom_site_fract_z
N1 N     0.888267500     0.270957780     0.639267360 
N2 N    -0.125530170     0.339419760     0.277768020 
N3 N     0.973201190     0.189571270     0.972377190 
N4 N     1.985192830     0.121327090     1.332830060 
N5 N     2.071572630     0.039721570     1.666956630 
C1 C     1.044959550     0.232614580     0.806266930 
C2 C     0.820574510     0.227383330     0.807843120 
C3 C     0.422974260     0.264328230     0.625664540 
C4 C     0.262884680     0.303455270     0.455232190 
C5 C     0.513995870     0.304964440     0.470843380 
C6 C     0.339873770     0.345980130     0.291635520 
C7 C    -0.043890120     0.380793760     0.119187030 
C8 C    -0.265458200     0.375671650     0.120577490 
C9 C     1.351509000     0.154962930     1.143544360 
C10 C     1.603122620     0.156475090     1.159185660 
C11 C     1.438856880     0.196172140     0.986106180 
C12 C     2.133080730     0.084111570     1.494566380 
C13 C     1.909218680     0.078888690     1.496173580 
C14 C     1.519477630     0.114763400     1.318963170 
C15 C     2.439512460     0.006698820     1.830876430 
C16 C     2.687393400     0.008229830     1.846130700 
C17 C     2.536543030     0.046344880     1.680552910 
H1 H     0.523259920     0.347641060     0.300815230 
H2 H    -0.186743970     0.412345040    -0.019442520 
H3 H    -0.572441550     0.403681510    -0.018018550 
H4 H     0.245772980     0.261851770     0.620299320 
H5 H     1.615835610     0.198678630     0.991332210 
H6 H     1.342729750     0.112221690     1.313887460 
H7 H     2.707671260     0.049676060     1.681978140 
H8 H     2.990524540    -0.021048070     1.989479530 
H9 H     2.562353210    -0.023919630     1.964057480 
N6 N     0.476388660     0.616364530     0.148741110 
N7 N    -0.370735000     0.546291260    -0.214182100 
N8 N     0.370405310     0.696420730     0.486169390 
N9 N     1.216243820     0.766275250     0.848038190 
N10 N     1.111185120     0.846550360     1.186492040 
C18 C     0.542382710     0.654419050     0.317501700 
C19 C     0.307207890     0.658898890     0.319894180 
C20 C    -0.001411860     0.621517560     0.136596870 
C21 C    -0.068948110     0.582684540    -0.035632070 
C22 C     0.184074110     0.581932190    -0.020693280 
C23 C     0.107013480     0.541206470    -0.201769700 
C24 C    -0.192844290     0.505955200    -0.375251040 
C25 C    -0.424964940     0.510336150    -0.373056910 
C26 C     0.665322490     0.731454830     0.658370830 
C27 C     0.918850890     0.730701020     0.673338400 
C28 C     0.848498660     0.691296950     0.498440450 
C29 C     1.276128340     0.803198390     1.011493630 
C30 C     1.041492930     0.807671460     1.013915500 
C31 C     0.738178500     0.771362340     0.835627360 
C32 C     1.399509940     0.879999570     1.351382400 
C33 C     1.649373960     0.879216390     1.365970660 
C34 C     1.588650310     0.841402500     1.198630820 
H10 H     0.293102460     0.540109010    -0.193111990 
H11 H    -0.260976350     0.474601180    -0.515297100 
H12 H    -0.664451810     0.481979360    -0.512488130 
H13 H    -0.183263290     0.623432620     0.131784490 
H14 H     1.030199210     0.689351790     0.503112510 
H15 H     0.556624810     0.773342740     0.831107010 
H16 H     1.766467110     0.838631690     1.199470020 
H17 H     1.882067480     0.908805480     1.510234130 
H18 H     1.449939990     0.910380790     1.485975140
#END