data_-152.897 
loop_
_symmetry_equiv_pos_site_id
_symmetry_equiv_pos_as_xyz
1 +x,+y,+z
2 -x,-y,-z
_cell_length_a 14.0223
_cell_length_b 11.9869
_cell_length_c 6.253
_cell_angle_alpha 43.8906
_cell_angle_beta 119.2456
_cell_angle_gamma 104.2908
loop_
_atom_site_label
_atom_site_type_symbol
_atom_site_fract_x
_atom_site_fract_y
_atom_site_fract_z
N1 N     0.841500880     0.462964330     0.305712800 
N2 N     0.694966290     0.692937470     0.280964960 
N3 N     1.003557340     0.256429600     1.220468440 
N4 N     1.149638800     0.027116020     1.243971130 
N5 N     1.312146440    -0.180057410     2.160262560 
C1 C     0.919114070     0.358698730     0.644462810 
C2 C     0.927038410     0.359145390     0.884886570 
C3 C     0.849583260     0.474323120     0.753407430 
C4 C     0.770381080     0.580733200     0.407881040 
C5 C     0.770113580     0.569489420     0.191199280 
C6 C     0.687019380     0.681415460    -0.166034420 
C7 C     0.613934530     0.790488150    -0.282723440 
C8 C     0.621674320     0.791031400    -0.045823210 
C9 C     1.076177970     0.148183250     1.339019060 
C10 C     1.075909830     0.136917750     1.121901150 
C11 C     0.995533190     0.244991540     0.772785980 
C12 C     1.224925140    -0.073839540     1.576098570 
C13 C     1.232840960    -0.073416380     1.816054180 
C14 C     1.157590640     0.038638910     1.691290220 
C15 C     1.381514670    -0.283755980     2.267863520 
C16 C     1.381170010    -0.294759050     2.053492800 
C17 C     1.304072420    -0.191409910     1.712889540 
H1 H     0.685719640     0.674576870    -0.330980980 
H2 H     0.549917170     0.877122540    -0.550495940 
H3 H     0.562891620     0.878683640    -0.141122070 
H4 H     0.852566750     0.478762760     0.923344200 
H5 H     0.992487870     0.240639370     0.602663340 
H6 H     1.160706900     0.042897210     1.861630200 
H7 H     1.299331540    -0.193374860     1.537453170 
H8 H     1.442422700    -0.385326530     2.167156190 
H9 H     1.443469700    -0.366894880     2.540226650
#END