data_-153.273 
loop_
_symmetry_equiv_pos_site_id
_symmetry_equiv_pos_as_xyz
1 +x,+y,+z
_cell_length_a 6.9958
_cell_length_b 26.6638
_cell_length_c 6.2433
_cell_angle_alpha 133.7692
_cell_angle_beta 53.1812
_cell_angle_gamma 125.9482
loop_
_atom_site_label
_atom_site_type_symbol
_atom_site_fract_x
_atom_site_fract_y
_atom_site_fract_z
N1 N     0.536996870     0.452831600     0.037847380 
N2 N     0.289499990     0.534018720     0.898548780 
N3 N     0.830448370     0.384659850     0.091449450 
N4 N     1.077167520     0.303695860    -0.767917250 
N5 N     1.371412410     0.235308790    -0.715318290 
C1 C     0.675323370     0.417760860    -0.049055290 
C2 C     0.694024830     0.419194730     0.175317830 
C3 C     0.560569390     0.459224050     0.496102780 
C4 C     0.419410980     0.495015580     0.584954230 
C5 C     0.414139140     0.489885330     0.341070570 
C6 C     0.266164700     0.527562760     0.440268350 
C7 C     0.140407910     0.565516210     0.751314060 
C8 C     0.158723530     0.566966300     0.972792510 
C9 C     0.955479000     0.347015840    -0.214668180 
C10 C     0.950183060     0.341875150    -0.459048700 
C11 C     0.806971120     0.378231330    -0.367134070 
C12 C     1.211430860     0.269764570    -0.848212880 
C13 C     1.230107010     0.271190550    -0.624335500 
C14 C     1.100515240     0.310150350    -0.309322160 
C15 C     1.490699690     0.199217590    -1.014085050 
C16 C     1.485358600     0.194187070    -1.254906620 
C17 C     1.347856750     0.228921580    -1.173243200 
H1 H     0.260309030     0.524273660     0.261245290 
H2 H     0.026563820     0.594723710     0.836169440 
H3 H     0.057524390     0.597457560     1.221352360 
H4 H     0.569376220     0.461699330     0.670552240 
H5 H     0.798059380     0.375792030    -0.541419530 
H6 H     1.109533900     0.312565460    -0.135182600 
H7 H     1.335975770     0.227293400    -1.343284420 
H8 H     1.591126350     0.162765100    -1.497633080 
H9 H     1.601171230     0.171266820    -1.081272020 
N6 N     0.377645140     0.807439090     0.081695430 
N7 N    -0.036078070     0.727504190     0.579404180 
N8 N     0.810911690     0.877147460     0.447755150 
N9 N     1.223405780     0.956862300    -0.049614420 
N10 N     1.657927730     1.026786840     0.316401400 
C18 C     0.587861540     0.842918000     0.154417930 
C19 C     0.603701250     0.842202300     0.374423020 
C20 C     0.388257680     0.802447640     0.515216360 
C21 C     0.173711970     0.766234610     0.441182080 
C22 C     0.178884390     0.770654350     0.218362610 
C23 C    -0.046352960     0.732553320     0.146149090 
C24 C    -0.249830490     0.694886980     0.286610110 
C25 C    -0.234428640     0.694143620     0.503627270 
C26 C     1.013056190     0.914523630     0.310862810 
C27 C     1.018229690     0.918950530     0.087594700 
C28 C     0.800465600     0.882170280     0.014063240 
C29 C     1.427234990     0.991201070     0.024549110 
C30 C     1.443051910     0.990493880     0.244114170 
C31 C     1.233659800     0.951806260     0.383955630 
C32 C     1.851143710     1.062606170     0.179834910 
C33 C     1.856017680     1.066931300    -0.040331970 
C34 C     1.647303670     1.031778070    -0.116790170 
H10 H    -0.045510480     0.735315900    -0.019569130 
H11 H    -0.423557160     0.665374700     0.238659750 
H12 H    -0.398043650     0.663877800     0.615108560 
H13 H     0.392048920     0.800503460     0.680055280 
H14 H     0.796502050     0.884080990    -0.150763860 
H15 H     1.237809570     0.949926670     0.548745430 
H16 H     1.638704010     1.032872930    -0.281041870 
H17 H     2.026152070     1.098171760    -0.141668600 
H18 H     2.018918960     1.090887710     0.239868410
#END