data_-153.258 
loop_
_symmetry_equiv_pos_site_id
_symmetry_equiv_pos_as_xyz
1 +x,+y,+z
2 -x,1/2+y,-z
_cell_length_a 6.2412
_cell_length_b 18.6384
_cell_length_c 6.9414
_cell_angle_alpha 90.0
_cell_angle_beta 127.3514
_cell_angle_gamma 90.0
loop_
_atom_site_label
_atom_site_type_symbol
_atom_site_fract_x
_atom_site_fract_y
_atom_site_fract_z
N1 N     0.890869570     0.858594760     0.590016020 
N2 N     0.678951360     0.928168150     0.950668710 
N3 N     0.210860360     0.778276920     0.252460830 
N4 N     0.423311830     0.708927770    -0.107155600 
N5 N    -0.257536210     0.628386390    -0.445721860 
C1 C     0.667566310     0.820506610     0.421488780 
C2 C     0.432662690     0.815836980     0.418501970 
C3 C     0.442651290     0.853060720     0.600956070 
C4 C     0.670360800     0.891928580     0.772944750 
C5 C     0.893191840     0.892881690     0.758638840 
C6 C     1.126654700     0.933640680     0.939443760 
C7 C     1.128488520     0.968734720     1.112111840 
C8 C     0.896923350     0.964163970     1.109337210 
C9 C     0.206365370     0.743393170     0.081068270 
C10 C     0.429643740     0.744348550     0.066733890 
C11 C     0.659144000     0.783788200     0.241379470 
C12 C     0.203071030     0.671965550    -0.270387270 
C13 C    -0.031347910     0.667296950    -0.273387190 
C14 C    -0.024701200     0.703448180    -0.095922100 
C15 C    -0.256023100     0.595087880    -0.609827470 
C16 C    -0.035690790     0.596066520    -0.623783820 
C17 C     0.190361270     0.633916120    -0.456660050 
H1 H     1.294519540     0.934882020     0.931262590 
H2 H     1.300674580     1.000109250     1.251922350 
H3 H     0.899884400     0.992396730     1.248115970 
H4 H     0.272386100     0.850998000     0.605316690 
H5 H     0.829500690     0.785880900     0.237158890 
H6 H    -0.195175680     0.701323640    -0.091860920 
H7 H     0.363450240     0.636831740    -0.457055270 
H8 H    -0.053565380     0.566590520    -0.767402810 
H9 H    -0.436271010     0.564670830    -0.744222100
#END