data_-152.861 
loop_
_symmetry_equiv_pos_site_id
_symmetry_equiv_pos_as_xyz
1 +x,+y,+z
2 -x,-y,-z
_cell_length_a 26.6862
_cell_length_b 24.1493
_cell_length_c 6.2531
_cell_angle_alpha 91.7469
_cell_angle_beta 107.2339
_cell_angle_gamma 153.3324
loop_
_atom_site_label
_atom_site_type_symbol
_atom_site_fract_x
_atom_site_fract_y
_atom_site_fract_z
N1 N     0.939196860     0.764241580     0.729805480 
N2 N     0.772699110     0.678902590     0.057083800 
N3 N     1.132064500     0.884036290     0.534570770 
N4 N     1.298035590     0.969074660     1.206442610 
N5 N     1.491431910     1.089175600     1.011741810 
C1 C     1.030591500     0.818772800     0.741462260 
C2 C     1.041947860     0.830235540     0.524777130 
C3 C     0.952775990     0.781736440     0.294513320 
C4 C     0.859513560     0.726095540     0.282462050 
C5 C     0.857081820     0.719739480     0.510515850 
C6 C     0.759292190     0.661518450     0.492285160 
C7 C     0.675217490     0.615959780     0.267199430 
C8 C     0.686331140     0.627215070     0.053381280 
C9 C     1.215620200     0.929367080     0.755456810 
C10 C     1.213182320     0.922999850     0.983983680 
C11 C     1.118561330     0.866585520     0.970121780 
C12 C     1.386720520     1.022066850     1.214007390 
C13 C     1.398064550     1.033512860     0.997793580 
C14 C     1.311465690     0.986484660     0.770948150 
C15 C     1.571179940     1.132309820     1.228685010 
C16 C     1.568681840     1.125971400     1.453940840 
C17 C     1.477861000     1.071691900     1.446719740 
H1 H     0.756186020     0.656034820     0.660670720 
H2 H     0.599953930     0.571321940     0.245283560 
H3 H     0.618694060     0.590534300    -0.126133820 
H4 H     0.957830140     0.788323750     0.128887070 
H5 H     1.113420920     0.859942990     1.135644560 
H6 H     1.316665000     0.993156600     0.605504250 
H7 H     1.470758170     1.063928970     1.609795690 
H8 H     1.639300690     1.164604040     1.625795750 
H9 H     1.644161460     1.175898890     1.235946190 
N6 N     0.810688690     0.485759600     0.771579220 
N7 N     0.976978090     0.570795990     1.443900950 
N8 N     0.617904710     0.366029030     0.967018650 
N9 N     0.452134350     0.281285890     0.295542400 
N10 N     0.258821500     0.161253850     0.490447840 
C18 C     0.719351480     0.431289710     0.760060090 
C19 C     0.707969700     0.419776170     0.976698390 
C20 C     0.797045500     0.468145570     1.206771280 
C21 C     0.890260860     0.523731940     1.218719140 
C22 C     0.892727650     0.530152650     0.990715290 
C23 C     0.990465340     0.588310600     1.008823220 
C24 C     1.074439540     0.633738040     1.233717630 
C25 C     1.063304650     0.622432750     1.447495520 
C26 C     0.534428220     0.320811210     0.746292250 
C27 C     0.536904180     0.327247400     0.517833750 
C28 C     0.631481020     0.383608560     0.531587700 
C29 C     0.363504740     0.228354920     0.288101540 
C30 C     0.352130850     0.216849900     0.504269770 
C31 C     0.438646030     0.263761800     0.730937820 
C32 C     0.179144730     0.118222640     0.273648660 
C33 C     0.181684790     0.124627080     0.048459520 
C34 C     0.272448650     0.178843720     0.055552330 
H10 H     0.993585650     0.593830810     0.840473880 
H11 H     1.149667350     0.678333230     1.255554550 
H12 H     1.130861780     0.659014890     1.626858800 
H13 H     0.791969690     0.461516810     1.372367130 
H14 H     0.636636740     0.390286760     0.366093290 
H15 H     0.433415360     0.257043110     0.896330310 
H16 H     0.279570970     0.186645650    -0.107484660 
H17 H     0.111131620     0.086085480    -0.123255930 
H18 H     0.106211950     0.074687580     0.266493730
#END