
#######################################################################
#
#                 Cambridge Crystallographic Data Centre
#                                CCDC 
#
#######################################################################
#
# If this CIF has been generated from an entry in the Cambridge 
# Structural Database, then it will include bibliographic, chemical, 
# crystal, experimental, refinement or atomic coordinate data resulting 
# from the CCDC's data processing and validation procedures.
#
#######################################################################

data_ALOXAN11
_symmetry_cell_setting           tetragonal
_symmetry_space_group_name_H-M   'P 41 21 2'
_symmetry_Int_Tables_number      92
_space_group_name_Hall           'P 4abw 2nw'
loop_
_symmetry_equiv_pos_site_id
_symmetry_equiv_pos_as_xyz
1 x,y,z
2 1/2-y,1/2+x,1/4+z
3 -x,-y,1/2+z
4 1/2+y,1/2-x,3/4+z
5 y,x,-z
6 1/2+x,1/2-y,3/4-z
7 -y,-x,1/2-z
8 1/2-x,1/2+y,1/4-z
_cell_length_a                   5.841(1)
_cell_length_b                   5.841(1)
_cell_length_c                   13.853(3)
_cell_angle_alpha                90
_cell_angle_beta                 90
_cell_angle_gamma                90
_cell_volume                     472.627
loop_
_atom_site_label
_atom_site_type_symbol
_atom_site_fract_x
_atom_site_fract_y
_atom_site_fract_z
N1 N 0.14559(9) -0.06589(10) -0.05820(4)
C1 C -0.04680(27) -0.04680 0.00000
C2 C 0.29927(26) 0.29927 0.00000
C3 C 0.32135(12) 0.08753(13) -0.06449(4)
O1 O -0.19367(33) -0.19367 0.00000
O2 O 0.44422(34) 0.44422 0.00000
O3 O 0.48677(17) 0.06297(18) -0.11651(6)
H1 H 0.14838(36) -0.20364(36) -0.10361(14)
N1D N -0.06589(10) 0.14559(9) 0.05820(4)
C3D C 0.08753(13) 0.32135(12) 0.06449(4)
H1D H -0.20364(36) 0.14838(36) 0.10361(14)
O3D O 0.06297(18) 0.48677(17) 0.11651(6)
N1 N 0.14559(9) -0.06589(10) 0.94180(4)
C1 C -0.04680(27) -0.04680 1.00000
C2 C 0.29927(26) 0.29927 1.00000
C3 C 0.32135(12) 0.08753(13) 0.93551(4)
O1 O -0.19367(33) -0.19367 1.00000
O2 O 0.44422(34) 0.44422 1.00000
O3 O 0.48677(17) 0.06297(18) 0.88349(6)
H1 H 0.14838(36) -0.20364(36) 0.89639(14)
N1D N -0.06589(10) 0.14559(9) 1.05820(4)
C3D C 0.08753(13) 0.32135(12) 1.06449(4)
H1D H -0.20364(36) 0.14838(36) 1.10361(14)
O3D O 0.06297(18) 0.48677(17) 1.11651(6)
N1 N 0.56589(10) 0.64559(9) 0.19180(4)
C1 C 0.54680 0.45320(27) 0.25000
C2 C 0.20073 0.79927(26) 0.25000
C3 C 0.41247(13) 0.82135(12) 0.18551(4)
O1 O 0.69367 0.30633(33) 0.25000
O2 O 0.05578 0.94422(34) 0.25000
O3 O 0.43703(18) 0.98677(17) 0.13349(6)
H1 H 0.70364(36) 0.64838(36) 0.14639(14)
N1D N 0.35441(9) 0.43411(10) 0.30820(4)
C3D C 0.17865(12) 0.58753(13) 0.31449(4)
H1D H 0.35162(36) 0.29636(36) 0.35361(14)
O3D O 0.01323(17) 0.56297(18) 0.36651(6)
N1 N 0.85441(9) 1.06589(10) 0.44180(4)
C1 C 1.04680(27) 1.04680 0.50000
C2 C 0.70073(26) 0.70073 0.50000
C3 C 0.67865(12) 0.91247(13) 0.43551(4)
O1 O 1.19367(33) 1.19367 0.50000
O2 O 0.55578(34) 0.55578 0.50000
O3 O 0.51323(17) 0.93703(18) 0.38349(6)
H1 H 0.85162(36) 1.20364(36) 0.39639(14)
N1D N 1.06589(10) 0.85441(9) 0.55820(4)
C3D C 0.91247(13) 0.67865(12) 0.56449(4)
H1D H 1.20364(36) 0.85162(36) 0.60361(14)
O3D O 0.93703(18) 0.51323(17) 0.61651(6)
N1 N 0.43411(10) 0.35441(9) 0.69180(4)
C1 C 0.45320 0.54680(27) 0.75000
C2 C 0.79927 0.20073(26) 0.75000
C3 C 0.58753(13) 0.17865(12) 0.68551(4)
O1 O 0.30633 0.69367(33) 0.75000
O2 O 0.94422 0.05578(34) 0.75000
O3 O 0.56297(18) 0.01323(17) 0.63349(6)
H1 H 0.29636(36) 0.35162(36) 0.64639(14)
N1D N 0.64559(9) 0.56589(10) 0.80820(4)
C3D C 0.82135(12) 0.41247(13) 0.81449(4)
H1D H 0.64838(36) 0.70364(36) 0.85361(14)
O3D O 0.98677(17) 0.43703(18) 0.86651(6)

#END
