data_benzen-QR-29-9058-3
_audit_creation_method 'generated by cspy2.0'
_cell_length_a 9.0742
_cell_length_b 7.6676
_cell_length_c 7.0967
_cell_angle_alpha 90.0
_cell_angle_beta 90.0
_cell_angle_gamma 90.0
loop_
_symmetry_equiv_pos_site_id
_symmetry_equiv_pos_as_xyz
1 +x,+y,+z
2 -x,-y,1/2+z
3 1/2+x,-y,+z
4 1/2-x,+y,1/2+z
loop_
_atom_site_label
_atom_site_type_symbol
_atom_site_fract_x
_atom_site_fract_y
_atom_site_fract_z
_atom_site_occupancy
C1 C       0.357906670000       0.683458860000       0.412214250000       1.000000000000
C2 C       0.452575480000       0.615333800000       0.276328300000       1.000000000000
C3 C       0.405339190000       0.818115260000       0.529287250000       1.000000000000
C4 C       0.594671180000       0.681889140000       0.257472050000       1.000000000000
C5 C       0.547424540000       0.884668440000       0.510431800000       1.000000000000
C6 C       0.642094370000       0.816533500000       0.374536350000       1.000000000000
H1 H       0.247348050000       0.631696520000       0.426878790000       1.000000000000
H2 H       0.415700130000       0.510583970000       0.185216880000       1.000000000000
H3 H       0.331654440000       0.871099510000       0.635022180000       1.000000000000
H4 H       0.668345570000       0.628902720000       0.151737920000       1.000000000000
H5 H       0.584289170000       0.989415300000       0.601533770000       1.000000000000
H6 H       0.752662310000       0.868307880000       0.359880510000       1.000000000000
#END